Circuit: * C:\users\mephiro\Mes documents\Japan_internship\PCB\EX1_Hero\Filter_design\Simulation\200k_RLC_filter.asc


Date: Wed Aug 21 15:12:57 2019
Total elapsed time: 0.040 seconds.

tnom = 27
temp = 27
method = trap
totiter = 0
traniter = 0
tranpoints = 0
accept = 0
rejected = 0
matrix size = 3
fillins = 1
solver = Normal

